PSSE/PowerFlow.csv
Type,Bus  Number,Bus  Name,LoadComp,Feeder,DER_Model,MVA_base,Base_kV,Id, Area Num,Zone Num,Owner Num,Bus Voltage,Pload,Qload,Pder,Qder,Report
BUS,153,MID230      230.00,ATL_MIX,FDR_01,-110,-1,230,1,1,1,1,1.0148,194.1929,-97.0965,0,0,1
BUS,154,DOWNTN      230.00,ATL_COM,FDR_01,-110,-1,230,1,2,1,1,0.9746,631.6354,-368.454,0,0,1
BUS,154,DOWNTN      230.00,ATL_COM,FDR_01,-110,-1,230,2,2,1,100,0.9746,421.0903,-263.1814,0,0,1
BUS,203,EAST230     230.00,ATL_RES,FDR_01,-110,-1,230,1,2,2,2,0.9932,304.0993,-152.0497,0,0,1
BUS,205,SUB230      230.00,ATL_MIX,FDR_01,-110,-1,230,1,2,2,2,0.98,1249.479,-728.863,0,0,1